# generated using pymatgen
data_BaPrMn2O6
_symmetry_space_group_name_H-M   'P 1'
_cell_length_a   3.95359560
_cell_length_b   3.95359560
_cell_length_c   7.91276855
_cell_angle_alpha   90.00000000
_cell_angle_beta   90.00000000
_cell_angle_gamma   90.00000000
_symmetry_Int_Tables_number   1
_chemical_formula_structural   BaPrMn2O6
_chemical_formula_sum   'Ba1 Pr1 Mn2 O6'
_cell_volume   123.68383769
_cell_formula_units_Z   1
loop_
 _symmetry_equiv_pos_site_id
 _symmetry_equiv_pos_as_xyz
  1  'x, y, z'
loop_
 _atom_site_type_symbol
 _atom_site_label
 _atom_site_symmetry_multiplicity
 _atom_site_fract_x
 _atom_site_fract_y
 _atom_site_fract_z
 _atom_site_occupancy
  O  O0  1  0.50000016  0.50000016  0.00000000  1
  O  O1  1  0.00000000  0.50000016  0.77349357  1
  O  O2  1  0.50000016  0.00000000  0.77349357  1
  O  O3  1  0.00000000  0.50000016  0.22650716  1
  O  O4  1  0.50000016  0.50000016  0.49999973  1
  O  O5  1  0.50000016  0.00000000  0.22650716  1
  Mn  Mn6  1  0.50000016  0.50000016  0.75275041  1
  Mn  Mn7  1  0.50000016  0.50000016  0.24724905  1
  Ba  Ba8  1  0.00000000  0.00000000  0.49999973  1
  Pr  Pr9  1  0.00000000  0.00000000  0.00000000  1
