# generated using pymatgen
data_Cu(IrS2)2
_symmetry_space_group_name_H-M   'P 1'
_cell_length_a   6.97406901
_cell_length_b   6.97406901
_cell_length_c   7.03519052
_cell_angle_alpha   119.71301335
_cell_angle_beta   119.71301335
_cell_angle_gamma   90.00000000
_symmetry_Int_Tables_number   1
_chemical_formula_structural   Cu(IrS2)2
_chemical_formula_sum   'Cu2 Ir4 S8'
_cell_volume   244.03831985
_cell_formula_units_Z   2
loop_
 _symmetry_equiv_pos_site_id
 _symmetry_equiv_pos_as_xyz
  1  'x, y, z'
loop_
 _atom_site_type_symbol
 _atom_site_label
 _atom_site_symmetry_multiplicity
 _atom_site_fract_x
 _atom_site_fract_y
 _atom_site_fract_z
 _atom_site_occupancy
  Cu  Cu0  1  0.75000000  0.25000000  0.50000000  1
  Cu  Cu1  1  -0.00000000  -0.00000000  -0.00000000  1
  Ir  Ir2  1  0.87500000  0.62500000  0.25000000  1
  Ir  Ir3  1  0.37500000  0.62500000  0.25000000  1
  Ir  Ir4  1  0.37500000  0.62500000  0.75000000  1
  Ir  Ir5  1  0.37500000  0.12500000  0.75000000  1
  S  S6  1  0.13062589  0.86216379  0.72432758  1
  S  S7  1  0.59370169  0.86216379  0.72432758  1
  S  S8  1  0.15629831  0.38783621  0.77567242  1
  S  S9  1  0.61937411  0.38783621  0.77567242  1
  S  S10  1  0.13783621  0.40629831  0.27567242  1
  S  S11  1  0.13783621  0.86937411  0.27567242  1
  S  S12  1  0.61216379  0.38062589  0.22432758  1
  S  S13  1  0.61216379  0.84370169  0.22432758  1
