#======================================================================

# CRYSTAL DATA

#----------------------------------------------------------------------

data_VESTA_phase_1


_chemical_name_common                  '3D\Atomistic                          '
_cell_length_a                         13.38663
_cell_length_b                         3.91034
_cell_length_c                         3.89790
_cell_angle_alpha                      90
_cell_angle_beta                       74.24649
_cell_angle_gamma                      90
_space_group_name_H-M_alt              'P 1'
_space_group_IT_number                 1

loop_
_space_group_symop_operation_xyz
   'x, y, z'

loop_
   _atom_site_label
   _atom_site_occupancy
   _atom_site_fract_x
   _atom_site_fract_y
   _atom_site_fract_z
   _atom_site_adp_type
   _atom_site_B_iso_or_equiv
   _atom_site_type_symbol
   H1         1.0     0.354389      0.220109      0.197673     Biso  1.000000 H
   H2         1.0     0.645611      0.779891      0.802327     Biso  1.000000 H
   H3         1.0     0.645611      0.220109      0.802327     Biso  1.000000 H
   H4         1.0     0.354389      0.779891      0.197673     Biso  1.000000 H
   H5         1.0     0.854389      0.720109      0.197673     Biso  1.000000 H
   H6         1.0     0.145611      0.279891      0.802327     Biso  1.000000 H
   H7         1.0     0.145611      0.720109      0.802327     Biso  1.000000 H
   H8         1.0     0.854389      0.279891      0.197673     Biso  1.000000 H
   H9         1.0     0.256750     -0.000000      0.011709     Biso  1.000000 H
   H10        1.0     0.743250     -0.000000     -0.011709     Biso  1.000000 H
   H11        1.0     0.756750      0.500000      0.011709     Biso  1.000000 H
   H12        1.0     0.243249      0.500000     -0.011709     Biso  1.000000 H
   H13        1.0     0.298505     -0.000000      0.830842     Biso  1.000000 H
   H14        1.0     0.701495     -0.000000      0.169158     Biso  1.000000 H
   H15        1.0     0.798505      0.500000      0.830842     Biso  1.000000 H
   H16        1.0     0.201495      0.500000      0.169158     Biso  1.000000 H
   H17        1.0     0.442757     -0.000000      0.694960     Biso  1.000000 H
   H18        1.0     0.557243     -0.000000      0.305040     Biso  1.000000 H
   H19        1.0     0.942757      0.500000      0.694960     Biso  1.000000 H
   H20        1.0     0.057243      0.500000      0.305040     Biso  1.000000 H
   H21        1.0     0.011479     -0.000000      0.730565     Biso  1.000000 H
   H22        1.0    -0.011479     -0.000000      0.269435     Biso  1.000000 H
   H23        1.0     0.511479      0.500000      0.730565     Biso  1.000000 H
   H24        1.0     0.488521      0.500000      0.269435     Biso  1.000000 H
   Ge1        1.0     0.000000      0.500000      0.000000     Biso  1.000000 Ge
   Ge2        1.0     0.500000     -0.000000      0.000000     Biso  1.000000 Ge
   Ge3        1.0     0.865713     -0.000000      0.486361     Biso  1.000000 Ge
   Ge4        1.0     0.134287     -0.000000      0.513639     Biso  1.000000 Ge
   Ge5        1.0     0.365713      0.500000      0.486361     Biso  1.000000 Ge
   Ge6        1.0     0.634287      0.500000      0.513639     Biso  1.000000 Ge
