#======================================================================

# CRYSTAL DATA

#----------------------------------------------------------------------

data_VESTA_phase_1


_chemical_name_common                  '3D\Atomistic                          '
_cell_length_a                         4.53173
_cell_length_b                         3.03120
_cell_length_c                         3.01618
_cell_angle_alpha                      90
_cell_angle_beta                       72.93958
_cell_angle_gamma                      90
_space_group_name_H-M_alt              'P 1'
_space_group_IT_number                 1

loop_
_space_group_symop_operation_xyz
   'x, y, z'

loop_
   _atom_site_label
   _atom_site_occupancy
   _atom_site_fract_x
   _atom_site_fract_y
   _atom_site_fract_z
   _atom_site_adp_type
   _atom_site_B_iso_or_equiv
   _atom_site_type_symbol
   H1         1.0     0.805079      0.250000      0.150370     Biso  1.000000 H
   H2         1.0     0.194921      0.750000      0.849630     Biso  1.000000 H
   H3         1.0     0.023924      0.750000      0.030496     Biso  1.000000 H
   H4         1.0     0.976076      0.250000      0.969504     Biso  1.000000 H
   Bi1        1.0     0.287116      0.250000      0.339344     Biso  1.000000 Bi
   Bi2        1.0     0.712884      0.750000      0.660656     Biso  1.000000 Bi
