#======================================================================

# CRYSTAL DATA

#----------------------------------------------------------------------

data_VESTA_phase_1


_chemical_name_common                  '3D\Atomistic                          '
_cell_length_a                         3.00608
_cell_length_b                         3.10283
_cell_length_c                         6.62884
_cell_angle_alpha                      89.03599
_cell_angle_beta                       77.49491
_cell_angle_gamma                      89.78030
_space_group_name_H-M_alt              'P 1'
_space_group_IT_number                 1

loop_
_space_group_symop_operation_xyz
   'x, y, z'

loop_
   _atom_site_label
   _atom_site_occupancy
   _atom_site_fract_x
   _atom_site_fract_y
   _atom_site_fract_z
   _atom_site_adp_type
   _atom_site_B_iso_or_equiv
   _atom_site_type_symbol
   H1         1.0     0.160156      0.713597      0.189728     Biso  1.000000 H
   H2         1.0     0.839844      0.286403      0.810272     Biso  1.000000 H
   H3         1.0     0.251700      0.432132     -0.002345     Biso  1.000000 H
   H4         1.0     0.748300      0.567868      0.002345     Biso  1.000000 H
   H5         1.0     0.889586      0.748669      0.440590     Biso  1.000000 H
   H6         1.0     0.110414      0.251331      0.559410     Biso  1.000000 H
   H7         1.0     0.209016      0.845957      0.080578     Biso  1.000000 H
   H8         1.0     0.790984      0.154043      0.919422     Biso  1.000000 H
   H9         1.0     0.741404      0.827529      0.015682     Biso  1.000000 H
   H10        1.0     0.258596      0.172471      0.984318     Biso  1.000000 H
   H11        1.0     0.172048      0.748427      0.436819     Biso  1.000000 H
   H12        1.0     0.827952      0.251573      0.563181     Biso  1.000000 H
   Bi1        1.0     0.612287      0.246821      0.280408     Biso  1.000000 Bi
   Bi2        1.0     0.387713      0.753179      0.719592     Biso  1.000000 Bi
