#======================================================================

# CRYSTAL DATA

#----------------------------------------------------------------------

data_VESTA_phase_1


_chemical_name_common                  '3D\Atomistic                          '
_cell_length_a                         2.94400
_cell_length_b                         2.94400
_cell_length_c                         2.68600
_cell_angle_alpha                      90
_cell_angle_beta                       90
_cell_angle_gamma                      120
_space_group_name_H-M_alt              'P 1'
_space_group_IT_number                 1

loop_
_space_group_symop_operation_xyz
   'x, y, z'

loop_
   _atom_site_label
   _atom_site_occupancy
   _atom_site_fract_x
   _atom_site_fract_y
   _atom_site_fract_z
   _atom_site_adp_type
   _atom_site_B_iso_or_equiv
   _atom_site_type_symbol
   H1         1.0     0.333333      0.666667      0.658470     Biso  1.000000 H
   H2         1.0     0.666667      0.333333      0.341530     Biso  1.000000 H
   H3         1.0     0.666667      0.333333      0.658470     Biso  1.000000 H
   H4         1.0     0.333333      0.666667      0.341530     Biso  1.000000 H
   Te1        1.0     0.000000      0.000000      0.000000     Biso  1.000000 Te
