#======================================================================

# CRYSTAL DATA

#----------------------------------------------------------------------

data_VESTA_phase_1


_chemical_name_common                  '3D\Atomistic                          '
_cell_length_a                         12.69560
_cell_length_b                         4.48658
_cell_length_c                         5.05404
_cell_angle_alpha                      90
_cell_angle_beta                       89.72646
_cell_angle_gamma                      90
_space_group_name_H-M_alt              'P 1'
_space_group_IT_number                 1

loop_
_space_group_symop_operation_xyz
   'x, y, z'

loop_
   _atom_site_label
   _atom_site_occupancy
   _atom_site_fract_x
   _atom_site_fract_y
   _atom_site_fract_z
   _atom_site_adp_type
   _atom_site_B_iso_or_equiv
   _atom_site_type_symbol
   H1         1.0     0.104484      0.750000      0.439129     Biso  1.000000 H
   H2         1.0     0.895516      0.250000      0.560871     Biso  1.000000 H
   H3         1.0     0.587339      0.750000      0.896823     Biso  1.000000 H
   H4         1.0     0.412661      0.250000      0.103178     Biso  1.000000 H
   H5         1.0     0.103823      0.750000     -0.061361     Biso  1.000000 H
   H6         1.0     0.896177      0.250000      0.061361     Biso  1.000000 H
   H7         1.0     0.041752      0.250000      0.220684     Biso  1.000000 H
   H8         1.0     0.958248      0.750000      0.779316     Biso  1.000000 H
   Hf1        1.0     0.979093      0.750000      0.195223     Biso  1.000000 Hf
   Hf2        1.0     0.020907      0.250000      0.804777     Biso  1.000000 Hf
   Hf3        1.0    -0.470396      0.250000     -0.181158     Biso  1.000000 Hf
   Hf4        1.0     0.470396      0.750000      0.181158     Biso  1.000000 Hf
