#======================================================================

# CRYSTAL DATA

#----------------------------------------------------------------------

data_VESTA_phase_1


_chemical_name_common                  '3D\Atomistic                          '
_cell_length_a                         4.64768
_cell_length_b                         4.64768
_cell_length_c                         9.84133
_cell_angle_alpha                      90
_cell_angle_beta                       90
_cell_angle_gamma                      120
_space_group_name_H-M_alt              'P 1'
_space_group_IT_number                 1

loop_
_space_group_symop_operation_xyz
   'x, y, z'

loop_
   _atom_site_label
   _atom_site_occupancy
   _atom_site_fract_x
   _atom_site_fract_y
   _atom_site_fract_z
   _atom_site_adp_type
   _atom_site_B_iso_or_equiv
   _atom_site_type_symbol
   H1         1.0     0.397763      0.124135      0.007786     Biso  1.000000 H
   H2         1.0     0.602237      0.875865      0.992214     Biso  1.000000 H
   H3         1.0     0.875865      0.273628      0.007786     Biso  1.000000 H
   H4         1.0     0.124135      0.726372      0.992214     Biso  1.000000 H
   H5         1.0     0.726372      0.602237      0.007786     Biso  1.000000 H
   H6         1.0     0.273628      0.397763      0.992214     Biso  1.000000 H
   H7         1.0     0.064429      0.457468      0.341119     Biso  1.000000 H
   H8         1.0     0.268904      0.209198      0.325547     Biso  1.000000 H
   H9         1.0     0.542532      0.606961      0.341119     Biso  1.000000 H
   H10        1.0     0.790801      0.059705      0.325547     Biso  1.000000 H
   H11        1.0     0.393039      0.935571      0.341119     Biso  1.000000 H
   H12        1.0     0.940295      0.731096      0.325547     Biso  1.000000 H
   H13        1.0     0.731096      0.790801      0.674453     Biso  1.000000 H
   H14        1.0     0.935571      0.542532      0.658881     Biso  1.000000 H
   H15        1.0     0.209198      0.940295      0.674453     Biso  1.000000 H
   H16        1.0     0.457468      0.393039      0.658881     Biso  1.000000 H
   H17        1.0     0.059705      0.268904      0.674453     Biso  1.000000 H
   H18        1.0     0.606961      0.064429      0.658881     Biso  1.000000 H
   H19        1.0     0.833333      0.166667      0.666667     Biso  1.000000 H
   H20        1.0     0.166667      0.833333      0.333333     Biso  1.000000 H
   H21        1.0     0.833333      0.666667      0.666667     Biso  1.000000 H
   H22        1.0     0.166667      0.333333      0.333333     Biso  1.000000 H
   H23        1.0     0.333333      0.166667      0.666667     Biso  1.000000 H
   H24        1.0     0.666667      0.833333      0.333333     Biso  1.000000 H
   H25        1.0     0.500000      0.500000     -0.000000     Biso  1.000000 H
   H26        1.0     0.500000      0.000000     -0.000000     Biso  1.000000 H
   H27        1.0     0.000000      0.500000     -0.000000     Biso  1.000000 H
   In1        1.0     0.000000      0.000000      0.860682     Biso  1.000000 In
   In2        1.0     0.000000      0.000000      0.139318     Biso  1.000000 In
   In3        1.0     0.666667      0.333333      0.194016     Biso  1.000000 In
   In4        1.0     0.666667      0.333333      0.472651     Biso  1.000000 In
   In5        1.0     0.333333      0.666667      0.527349     Biso  1.000000 In
   In6        1.0     0.333333      0.666667      0.805984     Biso  1.000000 In
   In7        1.0     0.666667      0.333333      0.833333     Biso  1.000000 In
   In8        1.0     0.333333      0.666667      0.166667     Biso  1.000000 In
   In9        1.0     0.000000      0.000000      0.500000     Biso  1.000000 In
