#======================================================================

# CRYSTAL DATA

#----------------------------------------------------------------------

data_VESTA_phase_1


_chemical_name_common                  '3D\Atomistic                          '
_cell_length_a                         3.95723
_cell_length_b                         3.95723
_cell_length_c                         6.00053
_cell_angle_alpha                      90
_cell_angle_beta                       90
_cell_angle_gamma                      120
_space_group_name_H-M_alt              'P 1'
_space_group_IT_number                 1

loop_
_space_group_symop_operation_xyz
   'x, y, z'

loop_
   _atom_site_label
   _atom_site_occupancy
   _atom_site_fract_x
   _atom_site_fract_y
   _atom_site_fract_z
   _atom_site_adp_type
   _atom_site_B_iso_or_equiv
   _atom_site_type_symbol
   Th1        1.0     0.333333      0.666667      0.750000     Biso  1.000000 Th
   Th2        1.0     0.666667      0.333333      0.250000     Biso  1.000000 Th
   H1         1.0     0.157181      0.314362      0.055377     Biso  1.000000 H
   H2         1.0     0.842819      0.685637      0.944623     Biso  1.000000 H
   H3         1.0     0.685637      0.842819      0.055377     Biso  1.000000 H
   H4         1.0     0.314362      0.157181      0.944623     Biso  1.000000 H
   H5         1.0     0.157181      0.842819      0.055377     Biso  1.000000 H
   H6         1.0     0.842819      0.157181      0.944623     Biso  1.000000 H
   H7         1.0     0.842819      0.685637      0.555377     Biso  1.000000 H
   H8         1.0     0.157181      0.314362      0.444623     Biso  1.000000 H
   H9         1.0     0.314362      0.157181      0.555377     Biso  1.000000 H
   H10        1.0     0.685637      0.842819      0.444623     Biso  1.000000 H
   H11        1.0     0.842819      0.157181      0.555377     Biso  1.000000 H
   H12        1.0     0.157181      0.842819      0.444623     Biso  1.000000 H
   H13        1.0     0.333333      0.666667      0.340174     Biso  1.000000 H
   H14        1.0     0.666667      0.333333      0.659827     Biso  1.000000 H
   H15        1.0     0.666667      0.333333      0.840173     Biso  1.000000 H
   H16        1.0     0.333333      0.666667      0.159827     Biso  1.000000 H
   H17        1.0    -0.000000     -0.000000      0.250000     Biso  1.000000 H
   H18        1.0    -0.000000     -0.000000      0.750000     Biso  1.000000 H
